Version 4
SHEET 1 1312 680
WIRE 560 16 304 16
WIRE 752 16 560 16
WIRE -224 32 -256 32
WIRE -128 32 -224 32
WIRE 560 32 560 16
WIRE 752 48 752 16
WIRE -224 80 -224 32
WIRE 304 80 304 16
WIRE -128 144 -128 32
WIRE 160 144 -128 144
WIRE 560 144 560 96
WIRE 560 144 448 144
WIRE 592 144 560 144
WIRE 624 144 592 144
WIRE 736 144 704 144
WIRE 752 144 752 112
WIRE 752 144 736 144
WIRE 816 144 752 144
WIRE 848 144 816 144
WIRE 880 144 848 144
WIRE 848 208 848 144
WIRE 944 208 848 208
WIRE 592 256 592 144
WIRE 736 256 736 144
WIRE -128 272 -128 144
WIRE 160 272 -128 272
WIRE 512 272 448 272
WIRE 944 320 944 208
WIRE -128 352 -128 272
WIRE -128 480 -128 416
WIRE 304 480 304 336
WIRE 304 480 -128 480
WIRE 592 480 592 320
WIRE 592 480 304 480
WIRE 736 480 736 320
WIRE 736 480 592 480
WIRE 944 480 944 400
WIRE 944 480 736 480
WIRE -128 560 -128 480
WIRE 352 560 -128 560
WIRE 512 560 512 272
WIRE 512 560 432 560
WIRE 608 560 512 560
WIRE 816 560 816 144
WIRE 816 560 688 560
WIRE -224 592 -224 160
WIRE -128 592 -128 560
WIRE -128 592 -224 592
WIRE -128 656 -128 592
FLAG -128 656 0
FLAG 880 144 Vout
IOPIN 880 144 Out
FLAG -256 32 Vin
IOPIN -256 32 In
SYMBOL cap -144 352 R0
SYMATTR InstName C2
SYMATTR Value 100µ
SYMBOL cap 720 256 R0
SYMATTR InstName C3
SYMATTR Value 100µ
SYMBOL ind 608 160 R270
WINDOW 0 32 56 VTop 2
WINDOW 3 5 56 VBottom 2
SYMATTR InstName L1
SYMATTR Value 10µ
SYMBOL schottky 608 320 R180
WINDOW 0 24 64 Left 2
WINDOW 3 24 0 Left 2
SYMATTR InstName D1
SYMATTR Value 1N5817
SYMATTR Description Diode
SYMATTR Type diode
SYMBOL res 704 544 R90
WINDOW 0 0 56 VBottom 2
WINDOW 3 32 56 VTop 2
SYMATTR InstName R2
SYMATTR Value 18k
SYMBOL res 448 544 R90
WINDOW 0 0 56 VBottom 2
WINDOW 3 32 56 VTop 2
SYMATTR InstName R3
SYMATTR Value 10k
SYMBOL voltage -224 64 R0
WINDOW 123 0 0 Left 0
WINDOW 39 0 0 Left 0
WINDOW 3 -171 108 Left 2
SYMATTR InstName V1
SYMATTR Value PWL(0 0 100u 0 5m 10 10m 4)
SYMBOL current 944 320 R0
WINDOW 123 0 0 Left 0
WINDOW 39 0 0 Left 0
SYMATTR InstName I1
SYMATTR Value PWL(0 0 5m 0 5.1m 700m)
SYMBOL PowerProducts\\LT1616 304 208 R0
SYMATTR InstName U2
SYMBOL cap 544 32 R0
SYMATTR InstName C4
SYMATTR Value 0.01µ
SYMBOL schottky 768 112 R180
WINDOW 0 24 64 Left 2
WINDOW 3 -107 28 Left 2
SYMATTR InstName D2
SYMATTR Value 1N5817
SYMATTR Description Diode
SYMATTR Type diode
TEXT 448 640 Left 2 !.tran 0 10m 0 10n
